15
	Energy:      47.4655840
C         -0.88234        1.91777       -0.41542
C         -1.33109        0.55598        0.08989
C         -0.06500       -0.31259        0.03664
H         -2.22590        0.11440       -0.39702
H         -1.58113        0.70794        1.16600
C          1.09177        0.68713       -0.11391
H         -0.04476       -1.00131       -0.83605
H         -0.01029       -0.90496        0.97602
C          0.48460        2.03246        0.25026
H          1.32902        0.75483       -1.20144
H          2.02887        0.40548        0.41075
H          1.08776        2.89791       -0.09766
H          0.35878        2.10099        1.35524
H         -1.58418        2.73854       -0.15540
H         -0.75866        1.88558       -1.52229
