26
	Energy:     224.4456337
C         -1.31147        2.92575        0.43627
C         -2.33928        2.06656        0.57005
C         -2.11855        0.59519        0.43198
C         -0.90420        0.11348        0.17509
C          0.15617        0.90799        0.03101
C          0.03664        2.38198        0.15049
H         -1.47311        3.99498        0.53684
C          1.12575        3.17050        0.00069
C          2.47941        2.59826       -0.28801
H          1.02912        4.24835        0.08977
C          2.66385        1.26817       -0.41002
H          3.32050        3.27571       -0.39917
C          1.50067        0.35379       -0.25480
C          3.97543        0.64089       -0.69455
C          4.07760       -0.70284       -0.80221
H          4.85959        1.25943       -0.81759
C          2.89728       -1.60948       -0.64330
H          5.04733       -1.14325       -1.01104
C          1.67334       -1.11247       -0.38362
H          3.04105       -2.68125       -0.74072
C          0.45695       -1.93929       -0.21275
C         -0.73721       -1.35438        0.04722
H          0.51923       -3.02052       -0.29569
H         -1.60283       -2.00148        0.16493
H         -3.33527        2.44312        0.77953
H         -2.97217       -0.06754        0.54644
